trunk/Version8/Distrib/IEEETestCases/ieee9500dss/source_VLN_Node.Txt

LINE-GROUND and LINE-LINE VOLTAGES BY BUS & NODE

Bus                     Node    VLN (kV)   Angle      pu     Base kV    Node-Node   VLL (kV)  Angle      pu

SOURCEBUS ............. 1       69.715 /_    0.0      1.05   115.000        1-2     120.75 /_   30.0      1.05
   -                    2       69.715 /_ -120.0      1.05   115.000        2-3     120.75 /_  -90.0      1.05
   -                    3       69.715 /_  120.0      1.05   115.000        3-1     120.75 /_  150.0      1.05
SX2000404A ............ 1      0.12145 /_  -32.5    1.0113     0.208        1-2     0.2429 /_  -32.5    1.1678
   -                    2      0.12145 /_  147.5    1.0114     0.208
SX2000405A ............ 1      0.12117 /_  -32.3     1.009     0.208        1-2    0.24235 /_  -32.3    1.1652
   -                    2      0.12118 /_  147.7    1.0091     0.208
SX2000402A ............ 1      0.12139 /_  -32.4    1.0108     0.208        1-2    0.24278 /_  -32.4    1.1672
   -                    2      0.12139 /_  147.6    1.0109     0.208
SX2000403A ............ 1      0.12131 /_  -32.4    1.0102     0.208        1-2    0.24263 /_  -32.4    1.1665
   -                    2      0.12132 /_  147.6    1.0102     0.208
SX2804272B ............ 1      0.10854 /_ -155.4   0.90383     0.208        1-2    0.21708 /_ -155.4    1.0437
   -                    2      0.10854 /_   24.6   0.90386     0.208
SX2001309A ............ 1       0.1214 /_  -32.5    1.0109     0.208        1-2     0.2428 /_  -32.5    1.1673
   -                    2       0.1214 /_  147.5    1.0109     0.208
SX2879078A ............ 1      0.12055 /_  -33.5    1.0039     0.208        1-2    0.24111 /_  -33.5    1.1592
   -                    2      0.12056 /_  146.5    1.0039     0.208
SX2803199B ............ 1       0.1201 /_ -154.0    1.0001     0.208        1-2     0.2402 /_ -154.0    1.1548
   -                    2       0.1201 /_   26.0    1.0001     0.208
SX2001310A ............ 1      0.12088 /_  -32.2    1.0066     0.208        1-2    0.24177 /_  -32.2    1.1623
   -                    2      0.12089 /_  147.8    1.0066     0.208
SX2730149C ............ 1      0.12071 /_   86.1    1.0052     0.208        1-2    0.24143 /_   86.1    1.1607
   -                    2      0.12072 /_  -93.9    1.0052     0.208
SX2000712B ............ 1      0.12116 /_ -152.8    1.0089     0.208        1-2    0.24233 /_ -152.8     1.165
   -                    2      0.12117 /_   27.2     1.009     0.208
SX2000713B ............ 1      0.12108 /_ -152.7    1.0082     0.208        1-2    0.24216 /_ -152.7    1.1642
   -                    2      0.12108 /_   27.3    1.0083     0.208
SX2000714B ............ 1      0.12127 /_ -152.8    1.0098     0.208        1-2    0.24254 /_ -152.8    1.1661
   -                    2      0.12127 /_   27.2    1.0099     0.208
SX2814529C ............ 1      0.12192 /_   87.6    1.0152     0.208        1-2    0.24384 /_   87.6    1.1723
   -                    2      0.12192 /_  -92.4    1.0153     0.208
SX2001306A ............ 1      0.12136 /_  -32.4    1.0105     0.208        1-2    0.24272 /_  -32.4    1.1669
   -                    2      0.12136 /_  147.6    1.0106     0.208
SX2673317A ............ 1      0.11926 /_  -33.7   0.99312     0.208        1-2    0.23853 /_  -33.7    1.1468
   -                    2      0.11927 /_  146.3   0.99316     0.208
SX2000715B ............ 1      0.12116 /_ -152.8    1.0089     0.208        1-2    0.24232 /_ -152.8     1.165
   -                    2      0.12116 /_   27.2    1.0089     0.208
SX3104155C ............ 1      0.11978 /_   85.4   0.99744     0.208        1-2    0.23957 /_   85.4    1.1518
   -                    2      0.11979 /_  -94.6   0.99747     0.208
SX2001307A ............ 1      0.12112 /_  -32.3    1.0086     0.208        1-2    0.24224 /_  -32.3    1.1646
   -                    2      0.12112 /_  147.7    1.0086     0.208
SX2897792A ............ 1      0.10729 /_  -34.1   0.89338     0.208        1-2    0.21457 /_  -34.1    1.0316
   -                    2      0.10729 /_  145.9   0.89341     0.208
SX2000902C ............ 1      0.12119 /_   87.6    1.0092     0.208        1-2    0.24239 /_   87.6    1.1654
   -                    2       0.1212 /_  -92.4    1.0092     0.208
SX3216347C ............ 1      0.12061 /_   85.8    1.0043     0.208        1-2    0.24122 /_   85.8    1.1597
   -                    2      0.12061 /_  -94.2    1.0043     0.208
SX2001308A ............ 1      0.12108 /_  -32.3    1.0082     0.208        1-2    0.24216 /_  -32.3    1.1642
   -                    2      0.12108 /_  147.7    1.0083     0.208
SX3197637C ............ 1       0.1208 /_   85.9    1.0059     0.208        1-2     0.2416 /_   85.9    1.1616
   -                    2       0.1208 /_  -94.1     1.006     0.208
SX2748143A ............ 1      0.10717 /_  -34.0    0.8924     0.208        1-2    0.21434 /_  -34.0    1.0305
   -                    2      0.10717 /_  146.0   0.89243     0.208
SX3178981B ............ 1      0.12114 /_ -153.5    1.0088     0.208        1-2    0.24229 /_ -153.5    1.1648
   -                    2      0.12115 /_   26.5    1.0088     0.208
SX2001314A ............ 1      0.12071 /_  -32.0    1.0052     0.208        1-2    0.24143 /_  -32.0    1.1607
   -                    2      0.12072 /_  148.0    1.0052     0.208
SX3101194C ............ 1      0.11971 /_   85.7   0.99681     0.208        1-2    0.23942 /_   85.7     1.151
   -                    2      0.11971 /_  -94.3   0.99685     0.208
SX2001315A ............ 1      0.12078 /_  -32.1    1.0057     0.208        1-2    0.24156 /_  -32.1    1.1614
   -                    2      0.12078 /_  147.9    1.0058     0.208
SX2000707B ............ 1      0.12125 /_ -152.8    1.0096     0.208        1-2     0.2425 /_ -152.8    1.1659
   -                    2      0.12125 /_   27.2    1.0097     0.208
SX2000708B ............ 1      0.12112 /_ -152.7    1.0086     0.208        1-2    0.24225 /_ -152.8    1.1647
   -                    2      0.12113 /_   27.2    1.0086     0.208
SX2000709B ............ 1       0.1213 /_ -152.9    1.0101     0.208        1-2     0.2426 /_ -152.9    1.1663
   -                    2       0.1213 /_   27.1    1.0101     0.208
SX2766721A ............ 1      0.11138 /_  -33.1   0.92749     0.208        1-2    0.22277 /_  -33.1     1.071
   -                    2      0.11138 /_  146.9   0.92752     0.208
SX3104144A ............ 1      0.10714 /_  -34.0    0.8922     0.208        1-2    0.21429 /_  -34.0    1.0302
   -                    2      0.10715 /_  146.0   0.89223     0.208
SX2000710B ............ 1      0.12121 /_ -152.8    1.0093     0.208        1-2    0.24242 /_ -152.8    1.1655
   -                    2      0.12121 /_   27.2    1.0093     0.208
SX2729428A ............ 1      0.11938 /_  -33.7   0.99407     0.208        1-2    0.23876 /_  -33.7    1.1479
   -                    2      0.11938 /_  146.3    0.9941     0.208
SX2001311A ............ 1      0.12099 /_  -32.2    1.0075     0.208        1-2    0.24197 /_  -32.2    1.1633
   -                    2      0.12099 /_  147.8    1.0075     0.208
SX2710521A ............ 1      0.12227 /_  -33.0    1.0181     0.208        1-2    0.24454 /_  -33.0    1.1757
   -                    2      0.12227 /_  147.0    1.0182     0.208
SX2000711B ............ 1      0.12138 /_ -152.9    1.0107     0.208        1-2    0.24275 /_ -152.9    1.1671
   -                    2      0.12138 /_   27.1    1.0107     0.208
SX2935551C ............ 1      0.11976 /_   85.4    0.9973     0.208        1-2    0.23953 /_   85.4    1.1516
   -                    2      0.11977 /_  -94.6   0.99733     0.208
SX2001312A ............ 1      0.12106 /_  -32.3    1.0081     0.208        1-2    0.24212 /_  -32.3     1.164
   -                    2      0.12106 /_  147.7    1.0081     0.208
SX3252336B ............ 1      0.12006 /_ -154.1   0.99977     0.208        1-2    0.24013 /_ -154.1    1.1545
   -                    2      0.12007 /_   25.9    0.9998     0.208
SX2710510C ............ 1      0.12111 /_   86.2    1.0085     0.208        1-2    0.24223 /_   86.2    1.1646
   -                    2      0.12112 /_  -93.8    1.0086     0.208
SX2001313A ............ 1      0.12065 /_  -32.0    1.0047     0.208        1-2     0.2413 /_  -32.0    1.1601
   -                    2      0.12065 /_  148.0    1.0047     0.208
SX2841636B ............ 1      0.12147 /_ -153.3    1.0115     0.208        1-2    0.24295 /_ -153.3     1.168
   -                    2      0.12148 /_   26.7    1.0116     0.208
SX2955005B ............ 1      0.12056 /_ -153.9    1.0039     0.208        1-2    0.24111 /_ -153.9    1.1592
   -                    2      0.12056 /_   26.1    1.0039     0.208
SX2001212C ............ 1      0.12066 /_   87.9    1.0048     0.208        1-2    0.24133 /_   87.9    1.1602
   -                    2      0.12067 /_  -92.1    1.0048     0.208
SX2766750C ............ 1      0.12199 /_   87.3    1.0159     0.208        1-2    0.24399 /_   87.3     1.173
   -                    2        0.122 /_  -92.7    1.0159     0.208
SX2001213C ............ 1      0.12065 /_   87.9    1.0047     0.208        1-2    0.24131 /_   87.9    1.1601
   -                    2      0.12066 /_  -92.1    1.0047     0.208
SX2001214C ............ 1      0.12071 /_   87.9    1.0052     0.208        1-2    0.24142 /_   87.9    1.1607
   -                    2      0.12071 /_  -92.1    1.0052     0.208
SX2000702B ............ 1      0.12125 /_ -152.8    1.0096     0.208        1-2     0.2425 /_ -152.8    1.1658
   -                    2      0.12125 /_   27.2    1.0097     0.208
SX2804252A ............ 1      0.12156 /_  -32.8    1.0123     0.208        1-2    0.24313 /_  -32.8    1.1689
   -                    2      0.12157 /_  147.2    1.0123     0.208
SX2992657A ............ 1      0.12117 /_  -33.6     1.009     0.208        1-2    0.24235 /_  -33.6    1.1651
   -                    2      0.12117 /_  146.4     1.009     0.208
SX2000703B ............ 1      0.12129 /_ -152.9      1.01     0.208        1-2    0.24258 /_ -152.9    1.1663
   -                    2      0.12129 /_   27.1      1.01     0.208
SX2674051A ............ 1      0.11162 /_  -33.2   0.92946     0.208        1-2    0.22324 /_  -33.2    1.0733
   -                    2      0.11162 /_  146.8   0.92949     0.208
SX2822867B ............ 1      0.11857 /_ -153.9   0.98733     0.208        1-2    0.23714 /_ -153.9    1.1401
   -                    2      0.11857 /_   26.1   0.98736     0.208
SX2000704B ............ 1      0.12125 /_ -152.8    1.0096     0.208        1-2     0.2425 /_ -152.8    1.1659
   -                    2      0.12125 /_   27.2    1.0097     0.208
SX3048965B ............ 1      0.12121 /_ -153.5    1.0094     0.208        1-2    0.24243 /_ -153.5    1.1655
   -                    2      0.12122 /_   26.5    1.0094     0.208
SX2001210C ............ 1       0.1209 /_   87.8    1.0068     0.208        1-2    0.24181 /_   87.8    1.1626
   -                    2      0.12091 /_  -92.2    1.0068     0.208
SX3235243C ............ 1      0.11993 /_   85.5   0.99866     0.208        1-2    0.23986 /_   85.5    1.1532
   -                    2      0.11993 /_  -94.5   0.99869     0.208
SX2000705B ............ 1      0.12127 /_ -152.8    1.0098     0.208        1-2    0.24254 /_ -152.8    1.1661
   -                    2      0.12127 /_   27.2    1.0099     0.208
SX3254214B ............ 1      0.11755 /_ -154.0   0.97883     0.208        1-2     0.2351 /_ -154.0    1.1303
   -                    2      0.11755 /_   26.0   0.97886     0.208
SX2001211C ............ 1       0.1204 /_   88.1    1.0026     0.208        1-2    0.24079 /_   88.1    1.1577
   -                    2       0.1204 /_  -91.9    1.0026     0.208
SX2973148A ............ 1       0.1242 /_  -34.1    1.0342     0.208        1-2     0.2484 /_  -34.1    1.1942
   -                    2       0.1242 /_  145.9    1.0342     0.208
SX2000706B ............ 1      0.12116 /_ -152.8    1.0089     0.208        1-2    0.24231 /_ -152.8     1.165
   -                    2      0.12116 /_   27.2    1.0089     0.208
SX2000410A ............ 1      0.12117 /_  -32.3     1.009     0.208        1-2    0.24234 /_  -32.3    1.1651
   -                    2      0.12117 /_  147.7     1.009     0.208
SX2691946B ............ 1      0.12038 /_ -153.5    1.0024     0.208        1-2    0.24075 /_ -153.5    1.1575
   -                    2      0.12038 /_   26.5    1.0024     0.208
SX3104134C ............ 1      0.12163 /_   86.6    1.0128     0.208        1-2    0.24327 /_   86.6    1.1695
   -                    2      0.12163 /_  -93.4    1.0129     0.208
SX2955077C ............ 1      0.12111 /_   86.4    1.0085     0.208        1-2    0.24223 /_   86.4    1.1645
   -                    2      0.12111 /_  -93.6    1.0085     0.208
SX3067478A ............ 1      0.12051 /_  -33.9    1.0035     0.208        1-2    0.24102 /_  -33.9    1.1588
   -                    2      0.12051 /_  146.1    1.0035     0.208
SX2001303A ............ 1      0.12121 /_  -32.4    1.0093     0.208        1-2    0.24242 /_  -32.4    1.1655
   -                    2      0.12121 /_  147.6    1.0094     0.208
SX2767409B ............ 1      0.12107 /_ -153.6    1.0081     0.208        1-2    0.24214 /_ -153.6    1.1641
   -                    2      0.12107 /_   26.4    1.0082     0.208
SX2001304A ............ 1      0.12137 /_  -32.4    1.0106     0.208        1-2    0.24274 /_  -32.4     1.167
   -                    2      0.12137 /_  147.5    1.0107     0.208
SX2936279C ............ 1      0.10934 /_   85.6   0.91047     0.208        1-2    0.21868 /_   85.6    1.0513
   -                    2      0.10934 /_  -94.4    0.9105     0.208
SX2001305A ............ 1       0.1213 /_  -32.4      1.01     0.208        1-2    0.24259 /_  -32.4    1.1663
   -                    2       0.1213 /_  147.6    1.0101     0.208
SX2000411A ............ 1      0.12139 /_  -32.4    1.0109     0.208        1-2    0.24279 /_  -32.5    1.1673
   -                    2       0.1214 /_  147.5    1.0109     0.208
SX3254231A ............ 1      0.10725 /_  -34.1   0.89309     0.208        1-2     0.2145 /_  -34.1    1.0313
   -                    2      0.10725 /_  145.9   0.89312     0.208
SX3011293C ............ 1      0.12139 /_   86.9    1.0108     0.208        1-2    0.24278 /_   86.9    1.1672
   -                    2      0.12139 /_  -93.1    1.0108     0.208
SX2000412A ............ 1       0.1209 /_  -32.1    1.0067     0.208        1-2     0.2418 /_  -32.1    1.1625
   -                    2       0.1209 /_  147.9    1.0068     0.208
SX2861197C ............ 1      0.12082 /_   86.2    1.0061     0.208        1-2    0.24164 /_   86.2    1.1617
   -                    2      0.12082 /_  -93.8    1.0061     0.208
SX2841616A ............ 1      0.12217 /_  -33.0    1.0173     0.208        1-2    0.24435 /_  -33.0    1.1747
   -                    2      0.12218 /_  147.0    1.0174     0.208
SX2000413A ............ 1      0.12136 /_  -32.4    1.0106     0.208        1-2    0.24272 /_  -32.4    1.1669
   -                    2      0.12136 /_  147.6    1.0106     0.208
SX3085410B ............ 1      0.10851 /_ -155.4   0.90361     0.208        1-2    0.21703 /_ -155.4    1.0434
   -                    2      0.10852 /_   24.6   0.90364     0.208
SX2804283A ............ 1      0.12213 /_  -33.1     1.017     0.208        1-2    0.24426 /_  -33.1    1.1743
   -                    2      0.12213 /_  146.9     1.017     0.208
SX2000414A ............ 1      0.12136 /_  -32.4    1.0106     0.208        1-2    0.24272 /_  -32.4    1.1669
   -                    2      0.12136 /_  147.6    1.0106     0.208
SX2710543C ............ 1       0.1198 /_   85.4    0.9976     0.208        1-2    0.23961 /_   85.4     1.152
   -                    2       0.1198 /_  -94.6   0.99764     0.208
SX2001215C ............ 1      0.12048 /_   88.0    1.0033     0.208        1-2    0.24097 /_   88.0    1.1585
   -                    2      0.12049 /_  -92.0    1.0033     0.208
SX2954350C ............ 1      0.12019 /_   85.6    1.0009     0.208        1-2    0.24039 /_   85.6    1.1557
   -                    2       0.1202 /_  -94.4    1.0009     0.208
SX2000415A ............ 1      0.12135 /_  -32.4    1.0105     0.208        1-2     0.2427 /_  -32.4    1.1668
   -                    2      0.12135 /_  147.6    1.0105     0.208
SX3010565C ............ 1      0.12044 /_   85.7    1.0029     0.208        1-2    0.24088 /_   85.7    1.1581
   -                    2      0.12044 /_  -94.3    1.0029     0.208
SX2691945C ............ 1      0.12032 /_   85.7    1.0019     0.208        1-2    0.24064 /_   85.7    1.1569
   -                    2      0.12032 /_  -94.3    1.0019     0.208
SX2001302A ............ 1      0.12143 /_  -32.5    1.0112     0.208        1-2    0.24286 /_  -32.5    1.1676
   -                    2      0.12143 /_  147.5    1.0112     0.208
SX2786274C ............ 1      0.10919 /_   85.5   0.90921     0.208        1-2    0.21837 /_   85.5    1.0499
   -                    2      0.10919 /_  -94.5   0.90924     0.208
SX2001013B ............ 1      0.12078 /_ -152.5    1.0058     0.208        1-2    0.24157 /_ -152.5    1.1614
   -                    2      0.12079 /_   27.5    1.0058     0.208
SX3160106A ............ 1      0.11951 /_  -33.7   0.99521     0.208        1-2    0.23903 /_  -33.7    1.1492
   -                    2      0.11952 /_  146.3   0.99525     0.208
SX2001015B ............ 1      0.12044 /_ -152.3    1.0029     0.208        1-2    0.24089 /_ -152.3    1.1581
   -                    2      0.12045 /_   27.7     1.003     0.208
SX2001004B ............ 1      0.12125 /_ -152.8    1.0096     0.208        1-2     0.2425 /_ -152.8    1.1658
   -                    2      0.12125 /_   27.2    1.0097     0.208
SX2897772A ............ 1      0.12204 /_  -32.9    1.0163     0.208        1-2    0.24409 /_  -32.9    1.1735
   -                    2      0.12205 /_  147.1    1.0163     0.208
SX2001202C ............ 1      0.12102 /_   87.7    1.0078     0.208        1-2    0.24205 /_   87.7    1.1637
   -                    2      0.12103 /_  -92.3    1.0078     0.208
SX2001005B ............ 1      0.12117 /_ -152.7     1.009     0.208        1-2    0.24234 /_ -152.7    1.1651
   -                    2      0.12117 /_   27.3     1.009     0.208
SX3179650B ............ 1      0.12047 /_ -154.0    1.0032     0.208        1-2    0.24094 /_ -154.0    1.1584
   -                    2      0.12047 /_   26.0    1.0032     0.208
SX2001203C ............ 1      0.12083 /_   87.8    1.0062     0.208        1-2    0.24166 /_   87.8    1.1618
   -                    2      0.12083 /_  -92.2    1.0062     0.208
SX2001006B ............ 1      0.12122 /_ -152.8    1.0095     0.208        1-2    0.24245 /_ -152.8    1.1656
   -                    2      0.12123 /_   27.2    1.0095     0.208
M1047PV-3 ............. 1        7.087 /_  -34.1   0.98437    12.470        1-2     12.459 /_   -4.1   0.99909
   -                    2       7.2494 /_ -154.8    1.0069    12.470        2-3     12.477 /_ -123.4    1.0006
   -                    3       7.3362 /_   87.6     1.019    12.470        3-1     12.597 /_  116.2    1.0102
SX2897767C ............ 1      0.12141 /_   87.6     1.011     0.208        1-2    0.24283 /_   87.6    1.1674
   -                    2      0.12142 /_  -92.4    1.0111     0.208
SX2001204C ............ 1      0.12098 /_   87.7    1.0074     0.208        1-2    0.24196 /_   87.7    1.1633
   -                    2      0.12098 /_  -92.3    1.0074     0.208
SX2001007B ............ 1      0.12124 /_ -152.8    1.0096     0.208        1-2    0.24248 /_ -152.8    1.1657
   -                    2      0.12124 /_   27.2    1.0096     0.208
SX3104126C ............ 1      0.12045 /_   85.7     1.003     0.208        1-2     0.2409 /_   85.7    1.1582
   -                    2      0.12045 /_  -94.3     1.003     0.208
SX2000406A ............ 1      0.12129 /_  -32.4      1.01     0.208        1-2    0.24258 /_  -32.4    1.1662
   -                    2      0.12129 /_  147.6      1.01     0.208
SX2936214A ............ 1      0.12042 /_  -34.0    1.0027     0.208        1-2    0.24083 /_  -34.0    1.1579
   -                    2      0.12042 /_  146.0    1.0028     0.208
SX2001008B ............ 1      0.12106 /_ -152.7    1.0081     0.208        1-2    0.24212 /_ -152.7     1.164
   -                    2      0.12106 /_   27.3    1.0081     0.208
SX3045895C ............ 1      0.10876 /_   85.5   0.90564     0.208        1-2    0.21752 /_   85.5    1.0458
   -                    2      0.10876 /_  -94.5   0.90567     0.208
SX3160862C ............ 1      0.12095 /_   86.3    1.0072     0.208        1-2    0.24191 /_   86.3     1.163
   -                    2      0.12096 /_  -93.7    1.0072     0.208
SX2000407A ............ 1      0.12131 /_  -32.4    1.0102     0.208        1-2    0.24263 /_  -32.4    1.1665
   -                    2      0.12132 /_  147.6    1.0102     0.208
SX2673331B ............ 1       0.1086 /_ -155.3   0.90432     0.208        1-2     0.2172 /_ -155.3    1.0442
   -                    2       0.1086 /_   24.7   0.90435     0.208
SX2805036B ............ 1      0.12008 /_ -153.6   0.99995     0.208        1-2    0.24017 /_ -153.6    1.1547
   -                    2      0.12009 /_   26.4   0.99998     0.208
SX2000408A ............ 1      0.12128 /_  -32.4    1.0099     0.208        1-2    0.24257 /_  -32.4    1.1662
   -                    2      0.12129 /_  147.6      1.01     0.208
SX3216348A ............ 1      0.11886 /_  -33.7   0.98973     0.208        1-2    0.23771 /_  -33.7    1.1429
   -                    2      0.11886 /_  146.3   0.98976     0.208
SX3143999A ............ 1      0.12227 /_  -33.1    1.0181     0.208        1-2    0.24454 /_  -33.1    1.1757
   -                    2      0.12227 /_  146.9    1.0182     0.208
SX2001014B ............ 1      0.12023 /_ -152.1    1.0012     0.208        1-2    0.24047 /_ -152.1    1.1561
   -                    2      0.12024 /_   27.9    1.0012     0.208
SX3217064B ............ 1      0.12107 /_ -153.6    1.0081     0.208        1-2    0.24214 /_ -153.6    1.1641
   -                    2      0.12107 /_   26.4    1.0082     0.208
SX2000409A ............ 1      0.12125 /_  -32.4    1.0097     0.208        1-2     0.2425 /_  -32.4    1.1659
   -                    2      0.12125 /_  147.6    1.0097     0.208
SX3178997C ............ 1      0.12199 /_   87.2    1.0158     0.208        1-2    0.24399 /_   87.2     1.173
   -                    2        0.122 /_  -92.8    1.0159     0.208
SX3082992A ............ 1      0.11887 /_  -33.7   0.98983     0.208        1-2    0.23774 /_  -33.7     1.143
   -                    2      0.11887 /_  146.3   0.98987     0.208
SX2000913C ............ 1      0.12114 /_   87.7    1.0087     0.208        1-2    0.24228 /_   87.7    1.1648
   -                    2      0.12114 /_  -92.4    1.0088     0.208
SX2673319C ............ 1      0.12202 /_   87.5    1.0161     0.208        1-2    0.24405 /_   87.5    1.1733
   -                    2      0.12203 /_  -92.5    1.0162     0.208
SX2001206C ............ 1      0.12108 /_   87.7    1.0083     0.208        1-2    0.24217 /_   87.7    1.1643
   -                    2      0.12109 /_  -92.3    1.0083     0.208
SX2000914C ............ 1      0.12114 /_   87.7    1.0087     0.208        1-2    0.24228 /_   87.7    1.1648
   -                    2      0.12114 /_  -92.4    1.0088     0.208
SX3197641A ............ 1       0.1188 /_  -33.9   0.98928     0.208        1-2    0.23761 /_  -33.9    1.1423
   -                    2      0.11881 /_  146.1   0.98931     0.208
SX2001207C ............ 1      0.12116 /_   87.6    1.0089     0.208        1-2    0.24232 /_   87.6     1.165
   -                    2      0.12116 /_  -92.4     1.009     0.208
SX2000915C ............ 1      0.12114 /_   87.7    1.0087     0.208        1-2    0.24227 /_   87.7    1.1648
   -                    2      0.12114 /_  -92.4    1.0087     0.208
SX2841627A ............ 1      0.11883 /_  -33.7   0.98953     0.208        1-2    0.23767 /_  -33.7    1.1426
   -                    2      0.11884 /_  146.2   0.98957     0.208
SX2001208C ............ 1        0.121 /_   87.7    1.0076     0.208        1-2      0.242 /_   87.7    1.1635
   -                    2        0.121 /_  -92.3    1.0076     0.208
SX2001002B ............ 1      0.12119 /_ -152.7    1.0092     0.208        1-2    0.24238 /_ -152.7    1.1653
   -                    2      0.12119 /_   27.3    1.0092     0.208
SX2001209C ............ 1      0.12088 /_   87.8    1.0066     0.208        1-2    0.24177 /_   87.8    1.1623
   -                    2      0.12089 /_  -92.2    1.0066     0.208
SX2897768C ............ 1      0.12044 /_   86.1    1.0029     0.208        1-2    0.24088 /_   86.1    1.1581
   -                    2      0.12044 /_  -93.9    1.0029     0.208
SX2001003B ............ 1      0.12111 /_ -152.7    1.0085     0.208        1-2    0.24223 /_ -152.7    1.1646
   -                    2      0.12112 /_   27.3    1.0086     0.208
SX3728043A ............ 1       0.1178 /_  -34.0   0.98096     0.208        1-2    0.23561 /_  -34.0    1.1327
   -                    2      0.11781 /_  145.9   0.98099     0.208
SX3215203A ............ 1      0.12024 /_  -33.9    1.0012     0.208        1-2    0.24048 /_  -33.9    1.1562
   -                    2      0.12024 /_  146.1    1.0013     0.208
SX2891575C ............ 1      0.11897 /_   86.7   0.99071     0.208        1-2    0.23795 /_   86.7     1.144
   -                    2      0.11898 /_  -93.3   0.99074     0.208
SX3233412A ............ 1      0.12029 /_  -33.9    1.0016     0.208        1-2    0.24057 /_  -33.9    1.1566
   -                    2      0.12029 /_  146.1    1.0017     0.208
SX2991943C ............ 1       0.1219 /_   87.1    1.0151     0.208        1-2    0.24381 /_   87.1    1.1722
   -                    2      0.12191 /_  -92.9    1.0151     0.208
SX2001205C ............ 1      0.12119 /_   87.6    1.0092     0.208        1-2    0.24239 /_   87.6    1.1653
   -                    2       0.1212 /_  -92.4    1.0092     0.208
SX2785523C ............ 1      0.12058 /_   85.8    1.0041     0.208        1-2    0.24117 /_   85.8    1.1595
   -                    2      0.12059 /_  -94.2    1.0041     0.208
SX2814529A ............ 1      0.12002 /_  -33.5   0.99942     0.208        1-2    0.24004 /_  -33.5    1.1541
   -                    2      0.12002 /_  146.5   0.99946     0.208
SX2990098A ............ 1      0.12023 /_  -33.9    1.0012     0.208        1-2    0.24047 /_  -33.9    1.1561
   -                    2      0.12024 /_  146.1    1.0012     0.208
SX2000908C ............ 1      0.12115 /_   87.6    1.0089     0.208        1-2    0.24231 /_   87.6     1.165
   -                    2      0.12116 /_  -92.4    1.0089     0.208
SX2992556C ............ 1       0.1203 /_   86.9    1.0017     0.208        1-2     0.2406 /_   86.9    1.1567
   -                    2       0.1203 /_  -93.1    1.0018     0.208
SX2879076C ............ 1      0.12058 /_   85.8    1.0041     0.208        1-2    0.24116 /_   85.8    1.1594
   -                    2      0.12058 /_  -94.2    1.0041     0.208
SX2000909C ............ 1      0.12115 /_   87.6    1.0088     0.208        1-2     0.2423 /_   87.6    1.1649
   -                    2      0.12115 /_  -92.4    1.0089     0.208
SX2000910C ............ 1      0.12115 /_   87.6    1.0088     0.208        1-2    0.24229 /_   87.6    1.1649
   -                    2      0.12115 /_  -92.4    1.0088     0.208
SX2001400C ............ 1      0.12085 /_   88.2    1.0063     0.208        1-2    0.24171 /_   88.2     1.162
   -                    2      0.12085 /_  -91.8    1.0064     0.208
SX2785513A ............ 1      0.12208 /_  -33.0    1.0166     0.208        1-2    0.24416 /_  -33.0    1.1739
   -                    2      0.12208 /_  147.0    1.0166     0.208
SX2000911C ............ 1      0.12114 /_   87.6    1.0088     0.208        1-2    0.24229 /_   87.6    1.1648
   -                    2      0.12115 /_  -92.4    1.0088     0.208
SX2785538A ............ 1      0.10729 /_  -34.1   0.89344     0.208        1-2    0.21459 /_  -34.1    1.0317
   -                    2       0.1073 /_  145.9   0.89347     0.208
SX2000912C ............ 1      0.12114 /_   87.7    1.0087     0.208        1-2    0.24228 /_   87.6    1.1648
   -                    2      0.12114 /_  -92.4    1.0088     0.208
SX3216368C ............ 1      0.12195 /_   87.5    1.0155     0.208        1-2     0.2439 /_   87.5    1.1726
   -                    2      0.12195 /_  -92.5    1.0155     0.208
SX3104132A ............ 1      0.12159 /_  -32.8    1.0125     0.208        1-2    0.24319 /_  -32.8    1.1692
   -                    2       0.1216 /_  147.2    1.0126     0.208
SX2841638C ............ 1       0.1215 /_   86.5    1.0117     0.208        1-2      0.243 /_   86.5    1.1683
   -                    2       0.1215 /_  -93.6    1.0118     0.208
SX2691951C ............ 1      0.12062 /_   85.9    1.0044     0.208        1-2    0.24124 /_   85.9    1.1598
   -                    2      0.12062 /_  -94.1    1.0044     0.208
SX2001009B ............ 1      0.12099 /_ -152.6    1.0075     0.208        1-2    0.24198 /_ -152.6    1.1634
   -                    2      0.12099 /_   27.4    1.0075     0.208
SX2710544A ............ 1      0.11887 /_  -33.7   0.98988     0.208        1-2    0.23775 /_  -33.7     1.143
   -                    2      0.11888 /_  146.3   0.98992     0.208
SX2897789B ............ 1      0.10781 /_ -155.5   0.89778     0.208        1-2    0.21563 /_ -155.5    1.0367
   -                    2      0.10782 /_   24.5   0.89781     0.208
SX2000903C ............ 1      0.12112 /_   87.7    1.0086     0.208        1-2    0.24224 /_   87.7    1.1646
   -                    2      0.12112 /_  -92.3    1.0086     0.208
SX2001010B ............ 1      0.12083 /_ -152.5    1.0062     0.208        1-2    0.24166 /_ -152.5    1.1618
   -                    2      0.12083 /_   27.5    1.0062     0.208
SX3048937C ............ 1      0.11893 /_   86.7   0.99038     0.208        1-2    0.23787 /_   86.7    1.1436
   -                    2      0.11894 /_  -93.3   0.99042     0.208
SX3198347C ............ 1      0.12125 /_   86.6    1.0096     0.208        1-2     0.2425 /_   86.6    1.1658
   -                    2      0.12125 /_  -93.4    1.0097     0.208
SX2000904C ............ 1      0.12126 /_   87.6    1.0097     0.208        1-2    0.24252 /_   87.6    1.1659
   -                    2      0.12126 /_  -92.4    1.0097     0.208
SX2001011B ............ 1      0.12131 /_ -152.8    1.0102     0.208        1-2    0.24262 /_ -152.8    1.1665
   -                    2      0.12131 /_   27.2    1.0102     0.208
SX2000905C ............ 1      0.12117 /_   87.6     1.009     0.208        1-2    0.24235 /_   87.6    1.1651
   -                    2      0.12118 /_  -92.4     1.009     0.208
SX2001012B ............ 1      0.12098 /_ -152.6    1.0074     0.208        1-2    0.24196 /_ -152.6    1.1633
   -                    2      0.12098 /_   27.4    1.0075     0.208
SX2000906C ............ 1      0.12116 /_   87.6     1.009     0.208        1-2    0.24233 /_   87.6    1.1651
   -                    2      0.12117 /_  -92.4     1.009     0.208
SX2000907C ............ 1      0.12116 /_   87.6    1.0089     0.208        1-2    0.24232 /_   87.6     1.165
   -                    2      0.12116 /_  -92.4    1.0089     0.208
SX2673318C ............ 1       0.1221 /_   87.6    1.0168     0.208        1-2    0.24421 /_   87.6    1.1741
   -                    2      0.12211 /_  -92.4    1.0168     0.208
SX3215203C ............ 1      0.12057 /_   86.1     1.004     0.208        1-2    0.24115 /_   86.1    1.1594
   -                    2      0.12058 /_  -93.9     1.004     0.208
SX3160113B ............ 1      0.10785 /_ -155.5   0.89807     0.208        1-2     0.2157 /_ -155.5     1.037
   -                    2      0.10785 /_   24.5    0.8981     0.208
SX2673308B ............ 1      0.12056 /_ -154.5     1.004     0.208        1-2    0.24113 /_ -154.5    1.1593
   -                    2      0.12057 /_   25.5     1.004     0.208
SX2839305A ............ 1      0.12148 /_  -33.5    1.0116     0.208        1-2    0.24297 /_  -33.5    1.1681
   -                    2      0.12149 /_  146.5    1.0116     0.208
M1209-DIES1 ........... 1      0.28118 /_  -63.3    1.0146     0.480        1-2    0.48716 /_  -33.3    1.0149
   -                    2      0.28125 /_  176.7    1.0149     0.480        2-3    0.48698 /_ -153.3    1.0145
   -                    3      0.28108 /_   56.7    1.0143     0.480        3-1    0.48686 /_   86.7    1.0143
M2001-MT1 ............. 1      0.30509 /_  -68.9    1.1009     0.480        1-2    0.49109 /_  -32.5    1.0231
   -                    2      0.30517 /_ -176.1    1.1012     0.480        2-3    0.48973 /_ -152.6    1.0203
   -                    3      0.24252 /_   57.5   0.87512     0.480        3-1    0.48961 /_   87.6      1.02
M2001-MT2 ............. 1        0.304 /_  -69.0     1.097     0.480        1-2    0.48936 /_  -32.6    1.0195
   -                    2      0.30414 /_ -176.2    1.0975     0.480        2-3    0.48803 /_ -152.8    1.0167
   -                    3      0.24144 /_   57.3   0.87122     0.480        3-1     0.4875 /_   87.4    1.0156
M2001-MT3 ............. 1        0.304 /_  -69.0     1.097     0.480        1-2    0.48936 /_  -32.6    1.0195
   -                    2      0.30414 /_ -176.2    1.0975     0.480        2-3    0.48803 /_ -152.8    1.0167
   -                    3      0.24144 /_   57.3   0.87122     0.480        3-1     0.4875 /_   87.4    1.0156
M1026CHP-3 ............ 1       6.9567 /_  -33.8   0.96626    12.470        1-2     12.302 /_   -3.3   0.98651
   -                    2       7.2201 /_ -154.1    1.0029    12.470        2-3     12.383 /_ -122.7   0.99302
   -                    3       7.2705 /_   88.4    1.0099    12.470        3-1     12.456 /_  116.6   0.99888
M1069-MT1 ............. 1      0.30311 /_  -69.2    1.0938     0.480        1-2    0.49025 /_  -32.7    1.0214
   -                    2      0.30559 /_ -176.5    1.1027     0.480        2-3    0.49003 /_ -152.9    1.0209
   -                    3      0.24291 /_   57.3   0.87651     0.480        3-1    0.48829 /_   87.2    1.0173
M1142-LNG1 ............ 1       0.2804 /_  -63.7    1.0118     0.480        1-2    0.48554 /_  -33.8    1.0115
   -                    2      0.28023 /_  176.2    1.0112     0.480        2-3    0.48533 /_ -153.7    1.0111
   -                    3      0.28028 /_   56.3    1.0114     0.480        3-1    0.48562 /_   86.3    1.0117
M1089-DIES1 ........... 1      0.28746 /_  -64.2    1.0373     0.480        1-2    0.49759 /_  -34.2    1.0366
   -                    2      0.28719 /_  175.8    1.0363     0.480        2-3    0.49757 /_ -154.1    1.0366
   -                    3      0.28745 /_   55.9    1.0372     0.480        3-1    0.49803 /_   85.8    1.0376
M1089-LNG1 ............ 1      0.27862 /_  -64.2    1.0054     0.480        1-2    0.48239 /_  -34.2     1.005
   -                    2      0.27821 /_  175.8    1.0039     0.480        2-3    0.48152 /_ -154.2    1.0032
   -                    3      0.27811 /_   55.9    1.0036     0.480        3-1    0.48223 /_   85.9    1.0047
SX2973180B ............ 1      0.11626 /_ -154.5   0.96816     0.208        1-2    0.23253 /_ -154.5    1.1179
   -                    2      0.11627 /_   25.5   0.96819     0.208
SX2948732B ............ 1      0.11877 /_ -154.5     0.989     0.208        1-2    0.23754 /_ -154.5     1.142
   -                    2      0.11877 /_   25.5   0.98903     0.208
SX2804251A ............ 1      0.12161 /_  -33.4    1.0126     0.208        1-2    0.24322 /_  -33.4    1.1693
   -                    2      0.12161 /_  146.6    1.0127     0.208
SX3197638A ............ 1      0.11459 /_  -34.2   0.95425     0.208        1-2    0.22919 /_  -34.2    1.1019
   -                    2       0.1146 /_  145.8   0.95428     0.208
SX2767414C ............ 1      0.10784 /_   84.9     0.898     0.208        1-2    0.21568 /_   84.9    1.0369
   -                    2      0.10784 /_  -95.1   0.89803     0.208
SX2879092C ............ 1      0.12083 /_   87.1    1.0062     0.208        1-2    0.24166 /_   87.1    1.1618
   -                    2      0.12083 /_  -92.9    1.0062     0.208
SX2952007C ............ 1      0.11789 /_   86.3   0.98166     0.208        1-2    0.23578 /_   86.3    1.1335
   -                    2      0.11789 /_  -93.7    0.9817     0.208
SX2841615A ............ 1      0.11497 /_  -34.4   0.95739     0.208        1-2    0.22995 /_  -34.4    1.1055
   -                    2      0.11498 /_  145.6   0.95742     0.208
SX2804261C ............ 1      0.12102 /_   86.8    1.0078     0.208        1-2    0.24205 /_   86.8    1.1637
   -                    2      0.12103 /_  -93.2    1.0078     0.208
SX2897806C ............ 1      0.11882 /_   85.0   0.98946     0.208        1-2    0.23765 /_   85.0    1.1426
   -                    2      0.11883 /_  -95.0    0.9895     0.208
SX3141411C ............ 1      0.11952 /_   87.2   0.99525     0.208        1-2    0.23904 /_   87.2    1.1492
   -                    2      0.11952 /_  -92.8   0.99529     0.208
SX3649302A ............ 1      0.11517 /_  -34.4   0.95902     0.208        1-2    0.23034 /_  -34.4    1.1074
   -                    2      0.11517 /_  145.6   0.95905     0.208
SX2690941B ............ 1      0.11376 /_ -155.7   0.94733     0.208        1-2    0.22753 /_ -155.7    1.0939
   -                    2      0.11377 /_   24.3   0.94737     0.208
SX2806553C ............ 1      0.11852 /_   86.4   0.98692     0.208        1-2    0.23704 /_   86.4    1.1396
   -                    2      0.11852 /_  -93.6   0.98695     0.208
SX2804255B ............ 1      0.11685 /_ -155.3   0.97299     0.208        1-2     0.2337 /_ -155.3    1.1235
   -                    2      0.11685 /_   24.7   0.97303     0.208
SX2804245B ............ 1      0.11863 /_ -154.5   0.98784     0.208        1-2    0.23726 /_ -154.5    1.1407
   -                    2      0.11863 /_   25.5   0.98788     0.208
SX2766717C ............ 1      0.11956 /_   85.4   0.99558     0.208        1-2    0.23912 /_   85.4    1.1496
   -                    2      0.11956 /_  -94.6   0.99562     0.208
SX3048209B ............ 1      0.11619 /_ -154.5   0.96754     0.208        1-2    0.23239 /_ -154.5    1.1172
   -                    2      0.11619 /_   25.5   0.96757     0.208
SX2879087A ............ 1      0.11489 /_  -34.3   0.95671     0.208        1-2    0.22978 /_  -34.3    1.1047
   -                    2      0.11489 /_  145.7   0.95674     0.208
SX2766741A ............ 1      0.12111 /_  -33.4    1.0085     0.208        1-2    0.24223 /_  -33.4    1.1646
   -                    2      0.12112 /_  146.6    1.0086     0.208
SX2897790C ............ 1      0.11046 /_   87.0   0.91983     0.208        1-2    0.22093 /_   87.0    1.0621
   -                    2      0.11047 /_  -93.0   0.91986     0.208
SX3122837C ............ 1      0.12052 /_   87.0    1.0036     0.208        1-2    0.24104 /_   87.0    1.1589
   -                    2      0.12052 /_  -93.0    1.0036     0.208
SX2710505B ............ 1       0.1142 /_ -155.7     0.951     0.208        1-2    0.22841 /_ -155.7    1.0981
   -                    2      0.11421 /_   24.3   0.95103     0.208
SX2691949B ............ 1      0.11752 /_ -154.3   0.97865     0.208        1-2    0.23505 /_ -154.3    1.1301
   -                    2      0.11753 /_   25.7   0.97868     0.208
SX3157167A ............ 1      0.12337 /_  -34.5    1.0273     0.208        1-2    0.24675 /_  -34.5    1.1863
   -                    2      0.12338 /_  145.5    1.0274     0.208
SX3104133A ............ 1      0.12104 /_  -33.2     1.008     0.208        1-2    0.24209 /_  -33.2    1.1639
   -                    2      0.12105 /_  146.8     1.008     0.208
SX2673307C ............ 1      0.11879 /_   85.0   0.98921     0.208        1-2    0.23759 /_   85.0    1.1423
   -                    2       0.1188 /_  -95.0   0.98924     0.208
SX3104114B ............ 1      0.11894 /_ -154.4   0.99045     0.208        1-2    0.23789 /_ -154.4    1.1437
   -                    2      0.11895 /_   25.6   0.99048     0.208
SX2954344C ............ 1      0.12021 /_   87.2     1.001     0.208        1-2    0.24042 /_   87.1    1.1559
   -                    2      0.12021 /_  -92.9     1.001     0.208
SX2861223B ............ 1      0.12031 /_ -153.5    1.0018     0.208        1-2    0.24063 /_ -153.6    1.1569
   -                    2      0.12031 /_   26.4    1.0019     0.208
SX2898522A ............ 1      0.12041 /_  -33.8    1.0027     0.208        1-2    0.24082 /_  -33.8    1.1578
   -                    2      0.12041 /_  146.2    1.0027     0.208
SX2710514B ............ 1      0.11487 /_ -155.6   0.95653     0.208        1-2    0.22974 /_ -155.6    1.1045
   -                    2      0.11487 /_   24.4   0.95657     0.208
SX2898526C ............ 1      0.10815 /_   85.0    0.9006     0.208        1-2    0.21631 /_   85.0    1.0399
   -                    2      0.10816 /_  -95.0   0.90063     0.208
SX3195315A ............ 1       0.1212 /_  -33.5    1.0092     0.208        1-2     0.2424 /_  -33.5    1.1654
   -                    2       0.1212 /_  146.5    1.0093     0.208
SX3235946A ............ 1      0.11921 /_  -34.5   0.99269     0.208        1-2    0.23842 /_  -34.5    1.1463
   -                    2      0.11921 /_  145.5   0.99272     0.208
SX2897766C ............ 1      0.10672 /_   84.8   0.88868     0.208        1-2    0.21344 /_   84.8    1.0262
   -                    2      0.10672 /_  -95.2    0.8887     0.208
SX3315860B ............ 1      0.11899 /_ -154.5   0.99086     0.208        1-2    0.23799 /_ -154.5    1.1442
   -                    2        0.119 /_   25.5   0.99089     0.208
SX2710537B ............ 1      0.11918 /_ -153.8   0.99245     0.208        1-2    0.23837 /_ -153.8     1.146
   -                    2      0.11919 /_   26.2   0.99248     0.208
SX3179674B ............ 1      0.12029 /_ -153.6    1.0017     0.208        1-2    0.24059 /_ -153.6    1.1567
   -                    2       0.1203 /_   26.4    1.0017     0.208
SX3085391B ............ 1      0.11699 /_ -154.3   0.97423     0.208        1-2    0.23399 /_ -154.3     1.125
   -                    2        0.117 /_   25.7   0.97426     0.208
SX2991908A ............ 1      0.11545 /_  -34.2   0.96134     0.208        1-2     0.2309 /_  -34.2    1.1101
   -                    2      0.11545 /_  145.8   0.96137     0.208
SX3104123C ............ 1      0.12078 /_   87.3    1.0058     0.208        1-2    0.24157 /_   87.3    1.1614
   -                    2      0.12079 /_  -92.7    1.0058     0.208
SX2973160B ............ 1      0.11934 /_ -155.1   0.99372     0.208        1-2    0.23867 /_ -155.1    1.1475
   -                    2      0.11934 /_   24.9   0.99376     0.208
SX3008237C ............ 1      0.11046 /_   87.0   0.91985     0.208        1-2    0.22093 /_   87.0    1.0622
   -                    2      0.11047 /_  -93.0   0.91988     0.208
SX2801895B ............ 1       0.1191 /_ -153.8   0.99174     0.208        1-2     0.2382 /_ -153.9    1.1452
   -                    2       0.1191 /_   26.1   0.99178     0.208
SX2879767B ............ 1      0.12029 /_ -154.0    1.0016     0.208        1-2    0.24058 /_ -154.0    1.1566
   -                    2      0.12029 /_   26.0    1.0017     0.208
SX2989566B ............ 1      0.11941 /_ -154.5   0.99433     0.208        1-2    0.23882 /_ -154.5    1.1482
   -                    2      0.11941 /_   25.5   0.99437     0.208
SX3091052A ............ 1      0.11744 /_  -34.1   0.97795     0.208        1-2    0.23489 /_  -34.1    1.1293
   -                    2      0.11744 /_  145.9   0.97798     0.208
SX2745799C ............ 1      0.11975 /_   88.0   0.99721     0.208        1-2    0.23951 /_   88.0    1.1515
   -                    2      0.11976 /_  -92.0   0.99724     0.208
SX2842384C ............ 1       0.1204 /_   86.1    1.0026     0.208        1-2     0.2408 /_   86.1    1.1577
   -                    2       0.1204 /_  -93.9    1.0026     0.208
SX2879068B ............ 1      0.11488 /_ -155.6   0.95661     0.208        1-2    0.22976 /_ -155.6    1.1046
   -                    2      0.11488 /_   24.4   0.95664     0.208
SX2973171B ............ 1      0.10697 /_ -155.9   0.89072     0.208        1-2    0.21394 /_ -155.9    1.0285
   -                    2      0.10697 /_   24.1   0.89075     0.208
SX2691973A ............ 1       0.1151 /_  -34.4   0.95848     0.208        1-2    0.23021 /_  -34.4    1.1068
   -                    2      0.11511 /_  145.6   0.95851     0.208
SX2952014A ............ 1      0.11475 /_  -34.4   0.95551     0.208        1-2     0.2295 /_  -34.4    1.1033
   -                    2      0.11475 /_  145.6   0.95554     0.208
SX3104130B ............ 1      0.12003 /_ -153.7   0.99954     0.208        1-2    0.24007 /_ -153.7    1.1542
   -                    2      0.12004 /_   26.3   0.99957     0.208
SX3195310A ............ 1      0.12051 /_  -33.1    1.0035     0.208        1-2    0.24103 /_  -33.1    1.1588
   -                    2      0.12052 /_  146.9    1.0036     0.208
SX2710520A ............ 1      0.12145 /_  -33.4    1.0114     0.208        1-2    0.24291 /_  -33.4    1.1678
   -                    2      0.12146 /_  146.6    1.0114     0.208
SX2785520B ............ 1      0.11988 /_ -154.0   0.99829     0.208        1-2    0.23977 /_ -154.0    1.1527
   -                    2      0.11989 /_   26.0   0.99833     0.208
SX3215340A ............ 1      0.11269 /_  -34.3    0.9384     0.208        1-2    0.22539 /_  -34.3    1.0836
   -                    2       0.1127 /_  145.7   0.93844     0.208
SX3236004C ............ 1      0.11987 /_   85.8   0.99816     0.208        1-2    0.23974 /_   85.8    1.1526
   -                    2      0.11987 /_  -94.2   0.99819     0.208
SX2898457A ............ 1      0.11986 /_  -34.3   0.99808     0.208        1-2    0.23972 /_  -34.3    1.1525
   -                    2      0.11986 /_  145.7   0.99811     0.208
SX2973178B ............ 1      0.11787 /_ -154.3   0.98151     0.208        1-2    0.23574 /_ -154.3    1.1334
   -                    2      0.11787 /_   25.7   0.98154     0.208
SX3235244A ............ 1      0.12104 /_  -33.4    1.0079     0.208        1-2    0.24208 /_  -33.4    1.1639
   -                    2      0.12104 /_  146.6     1.008     0.208
SX2804957C ............ 1      0.11809 /_   86.3   0.98336     0.208        1-2    0.23618 /_   86.3    1.1355
   -                    2      0.11809 /_  -93.7   0.98339     0.208
SX3254218A ............ 1      0.12124 /_  -33.4    1.0096     0.208        1-2    0.24248 /_  -33.4    1.1658
   -                    2      0.12124 /_  146.6    1.0096     0.208
SX2804956A ............ 1      0.11935 /_  -34.4   0.99388     0.208        1-2    0.23871 /_  -34.4    1.1477
   -                    2      0.11936 /_  145.6   0.99391     0.208
SX2801902B ............ 1      0.10654 /_ -155.9   0.88718     0.208        1-2    0.21308 /_ -155.9    1.0244
   -                    2      0.10654 /_   24.1   0.88721     0.208
SX3066808C ............ 1      0.12062 /_   87.2    1.0044     0.208        1-2    0.24124 /_   87.2    1.1598
   -                    2      0.12062 /_  -92.8    1.0045     0.208
SX3235248C ............ 1      0.11881 /_   88.0   0.98937     0.208        1-2    0.23763 /_   88.0    1.1424
   -                    2      0.11882 /_  -92.1    0.9894     0.208
SX2897776C ............ 1      0.11883 /_   85.2   0.98953     0.208        1-2    0.23767 /_   85.2    1.1426
   -                    2      0.11884 /_  -94.8   0.98957     0.208
SX2897765B ............ 1      0.11444 /_ -155.7   0.95292     0.208        1-2    0.22888 /_ -155.7    1.1004
   -                    2      0.11444 /_   24.3   0.95296     0.208
SX3048205C ............ 1      0.10691 /_   84.9    0.8903     0.208        1-2    0.21383 /_   84.9     1.028
   -                    2      0.10692 /_  -95.1   0.89033     0.208
SX3104128A ............ 1       0.1105 /_  -33.6   0.92018     0.208        1-2    0.22101 /_  -33.6    1.0625
   -                    2      0.11051 /_  146.4   0.92021     0.208
SX2973161A ............ 1      0.11743 /_  -34.2   0.97784     0.208        1-2    0.23486 /_  -34.2    1.1291
   -                    2      0.11743 /_  145.8   0.97787     0.208
SX3178988B ............ 1      0.10759 /_ -155.9   0.89595     0.208        1-2    0.21519 /_ -155.9    1.0346
   -                    2       0.1076 /_   24.1   0.89598     0.208
SX3632979A ............ 1      0.11372 /_  -34.2     0.947     0.208        1-2    0.22745 /_  -34.2    1.0935
   -                    2      0.11373 /_  145.8   0.94703     0.208
SX2766723A ............ 1      0.11918 /_  -33.9   0.99247     0.208        1-2    0.23837 /_  -33.9     1.146
   -                    2      0.11919 /_  146.1    0.9925     0.208
SX2989571A ............ 1      0.11239 /_  -34.4   0.93586     0.208        1-2    0.22478 /_  -34.4    1.0807
   -                    2      0.11239 /_  145.6   0.93589     0.208
SX3232301C ............ 1      0.11732 /_   85.1   0.97697     0.208        1-2    0.23465 /_   85.1    1.1281
   -                    2      0.11733 /_  -94.9     0.977     0.208
SX3141397B ............ 1      0.11454 /_ -155.6   0.95375     0.208        1-2    0.22907 /_ -155.6    1.1013
   -                    2      0.11454 /_   24.4   0.95379     0.208
SX3160793C ............ 1      0.11977 /_   85.7   0.99733     0.208        1-2    0.23954 /_   85.7    1.1516
   -                    2      0.11977 /_  -94.3   0.99737     0.208
SX2726975B ............ 1       0.1141 /_ -155.7   0.95016     0.208        1-2    0.22821 /_ -155.7    1.0972
   -                    2      0.11411 /_   24.3   0.95019     0.208
SX3064514C ............ 1      0.11808 /_   86.3   0.98323     0.208        1-2    0.23615 /_   86.3    1.1354
   -                    2      0.11808 /_  -93.7   0.98326     0.208
SX2916606C ............ 1      0.10734 /_   84.9   0.89385     0.208        1-2    0.21469 /_   84.9    1.0321
   -                    2      0.10734 /_  -95.1   0.89388     0.208
SX2973162B ............ 1      0.12077 /_ -153.7    1.0057     0.208        1-2    0.24155 /_ -153.7    1.1613
   -                    2      0.12078 /_   26.3    1.0057     0.208
SX2766732B ............ 1      0.11939 /_ -154.0   0.99415     0.208        1-2    0.23878 /_ -154.0     1.148
   -                    2      0.11939 /_   26.0   0.99418     0.208
SX3065750B ............ 1      0.11376 /_ -155.7   0.94726     0.208        1-2    0.22752 /_ -155.7    1.0938
   -                    2      0.11376 /_   24.3   0.94729     0.208
SX3216336A ............ 1      0.11472 /_  -34.4   0.95528     0.208        1-2    0.22944 /_  -34.4    1.1031
   -                    2      0.11472 /_  145.6   0.95532     0.208
SX2954347B ............ 1      0.11847 /_ -154.6   0.98652     0.208        1-2    0.23695 /_ -154.6    1.1392
   -                    2      0.11847 /_   25.4   0.98656     0.208
SX2916602A ............ 1      0.12317 /_  -34.5    1.0257     0.208        1-2    0.24634 /_  -34.5    1.1843
   -                    2      0.12317 /_  145.5    1.0257     0.208
SX3029510B ............ 1      0.11884 /_ -154.5   0.98962     0.208        1-2    0.23769 /_ -154.5    1.1427
   -                    2      0.11885 /_   25.5   0.98966     0.208
SX2691941C ............ 1      0.11823 /_   87.9    0.9845     0.208        1-2    0.23646 /_   87.9    1.1368
   -                    2      0.11823 /_  -92.1   0.98453     0.208
SX2690868C ............ 1      0.11798 /_   85.1   0.98246     0.208        1-2    0.23597 /_   85.1    1.1345
   -                    2      0.11799 /_  -94.9   0.98249     0.208
SX2936270A ............ 1      0.12085 /_  -33.3    1.0063     0.208        1-2     0.2417 /_  -33.3     1.162
   -                    2      0.12085 /_  146.7    1.0064     0.208
SX3216123A ............ 1      0.11621 /_  -34.4   0.96771     0.208        1-2    0.23243 /_  -34.4    1.1174
   -                    2      0.11622 /_  145.6   0.96775     0.208
SX3231269B ............ 1      0.11877 /_ -154.5   0.98901     0.208        1-2    0.23754 /_ -154.5     1.142
   -                    2      0.11877 /_   25.5   0.98904     0.208
SX2897805A ............ 1      0.11684 /_  -34.5   0.97296     0.208        1-2    0.23369 /_  -34.5    1.1235
   -                    2      0.11685 /_  145.5   0.97299     0.208
SX3122848C ............ 1      0.12051 /_   87.5    1.0035     0.208        1-2    0.24102 /_   87.5    1.1588
   -                    2      0.12051 /_  -92.5    1.0035     0.208
SX2860480B ............ 1      0.11398 /_ -155.7   0.94914     0.208        1-2    0.22797 /_ -155.7     1.096
   -                    2      0.11398 /_   24.3   0.94917     0.208
SX3176656A ............ 1      0.11538 /_  -34.2   0.96077     0.208        1-2    0.23076 /_  -34.2    1.1094
   -                    2      0.11538 /_  145.8    0.9608     0.208
SX3214112B ............ 1      0.11658 /_ -154.5    0.9708     0.208        1-2    0.23317 /_ -154.5     1.121
   -                    2      0.11659 /_   25.5   0.97083     0.208
SX3160865A ............ 1      0.12022 /_  -34.0    1.0011     0.208        1-2    0.24044 /_  -34.0     1.156
   -                    2      0.12022 /_  146.0    1.0011     0.208
SX3216342B ............ 1      0.11939 /_ -155.0   0.99421     0.208        1-2    0.23879 /_ -155.0     1.148
   -                    2       0.1194 /_   25.0   0.99424     0.208
SX2691939B ............ 1      0.11888 /_ -154.4   0.98995     0.208        1-2    0.23777 /_ -154.4    1.1431
   -                    2      0.11889 /_   25.6   0.98999     0.208
SX2766724C ............ 1      0.12094 /_   87.2    1.0071     0.208        1-2    0.24189 /_   87.2    1.1629
   -                    2      0.12095 /_  -92.8    1.0072     0.208
SX2673322B ............ 1      0.12018 /_ -154.3    1.0007     0.208        1-2    0.24036 /_ -154.3    1.1556
   -                    2      0.12018 /_   25.7    1.0008     0.208
SX3727712A ............ 1      0.11677 /_  -34.5    0.9724     0.208        1-2    0.23355 /_  -34.5    1.1229
   -                    2      0.11678 /_  145.5   0.97244     0.208
SX2954345C ............ 1      0.12092 /_   87.3    1.0069     0.208        1-2    0.24185 /_   87.3    1.1627
   -                    2      0.12093 /_  -92.7     1.007     0.208
SX3235252B ............ 1      0.11754 /_ -154.3   0.97877     0.208        1-2    0.23508 /_ -154.3    1.1302
   -                    2      0.11754 /_   25.7   0.97881     0.208
SX2841630C ............ 1      0.11939 /_   85.4   0.99422     0.208        1-2    0.23879 /_   85.4     1.148
   -                    2       0.1194 /_  -94.6   0.99425     0.208
SX3120376A ............ 1      0.11484 /_  -34.4   0.95631     0.208        1-2    0.22969 /_  -34.4    1.1043
   -                    2      0.11485 /_  145.6   0.95634     0.208
SX2991905A ............ 1      0.12083 /_  -33.4    1.0062     0.208        1-2    0.24167 /_  -33.4    1.1619
   -                    2      0.12084 /_  146.6    1.0062     0.208
SX3251808A ............ 1      0.11272 /_  -34.4   0.93866     0.208        1-2    0.22545 /_  -34.4    1.0839
   -                    2      0.11273 /_  145.6   0.93869     0.208
SX3645810C ............ 1      0.11896 /_   87.5   0.99056     0.208        1-2    0.23791 /_   87.5    1.1438
   -                    2      0.11896 /_  -92.5   0.99059     0.208
SX3085388B ............ 1      0.11959 /_ -153.9   0.99585     0.208        1-2    0.23919 /_ -153.9    1.1499
   -                    2      0.11959 /_   26.1   0.99588     0.208
SX2767342A ............ 1      0.11913 /_  -34.5   0.99203     0.208        1-2    0.23827 /_  -34.5    1.1455
   -                    2      0.11914 /_  145.5   0.99206     0.208
SX3142099B ............ 1      0.12027 /_ -153.6    1.0015     0.208        1-2    0.24054 /_ -153.6    1.1564
   -                    2      0.12027 /_   26.4    1.0015     0.208
SX2710511A ............ 1      0.11576 /_  -34.3   0.96399     0.208        1-2    0.23153 /_  -34.3    1.1131
   -                    2      0.11577 /_  145.7   0.96402     0.208
SX2804249C ............ 1      0.10834 /_   85.1   0.90219     0.208        1-2    0.21669 /_   85.1    1.0418
   -                    2      0.10835 /_  -94.9   0.90222     0.208
SX2729413A ............ 1      0.11523 /_  -34.4   0.95953     0.208        1-2    0.23046 /_  -34.4     1.108
   -                    2      0.11523 /_  145.6   0.95956     0.208
SX2786273B ............ 1      0.11891 /_ -154.0    0.9902     0.208        1-2    0.23783 /_ -154.0    1.1434
   -                    2      0.11892 /_   26.0   0.99024     0.208
SX3217052C ............ 1       0.1199 /_   86.0    0.9984     0.208        1-2     0.2398 /_   86.0    1.1529
   -                    2       0.1199 /_  -94.0   0.99844     0.208
SX2688692B ............ 1      0.10842 /_ -153.9   0.90286     0.208        1-2    0.21685 /_ -153.9    1.0426
   -                    2      0.10843 /_   26.1   0.90289     0.208
SX2764412A ............ 1      0.11263 /_  -34.3   0.93788     0.208        1-2    0.22526 /_  -34.3     1.083
   -                    2      0.11263 /_  145.7   0.93791     0.208
SX2879753B ............ 1      0.11984 /_ -154.0    0.9979     0.208        1-2    0.23968 /_ -154.0    1.1523
   -                    2      0.11984 /_   26.0   0.99794     0.208
SX2916608C ............ 1      0.11923 /_   88.0   0.99288     0.208        1-2    0.23847 /_   88.0    1.1465
   -                    2      0.11924 /_  -92.0   0.99292     0.208
SX2841637C ............ 1      0.12068 /_   86.7    1.0049     0.208        1-2    0.24137 /_   86.7    1.1604
   -                    2      0.12069 /_  -93.3     1.005     0.208
SX2785524C ............ 1      0.11948 /_   85.3   0.99491     0.208        1-2    0.23896 /_   85.3    1.1488
   -                    2      0.11948 /_  -94.7   0.99494     0.208
SX3085400C ............ 1      0.11882 /_   85.2   0.98945     0.208        1-2    0.23765 /_   85.2    1.1425
   -                    2      0.11883 /_  -94.8   0.98948     0.208
SX3254870C ............ 1      0.11953 /_   85.7   0.99536     0.208        1-2    0.23907 /_   85.7    1.1494
   -                    2      0.11954 /_  -94.3   0.99539     0.208
SX3030203C ............ 1      0.11999 /_   86.1   0.99916     0.208        1-2    0.23998 /_   86.1    1.1538
   -                    2      0.11999 /_  -93.9    0.9992     0.208
SX3068944B ............ 1      0.11959 /_ -154.0   0.99581     0.208        1-2    0.23918 /_ -154.0    1.1499
   -                    2      0.11959 /_   26.0   0.99585     0.208
SX2991917B ............ 1      0.12058 /_ -153.7    1.0041     0.208        1-2    0.24116 /_ -153.7    1.1594
   -                    2      0.12058 /_   26.3    1.0041     0.208
SX3728039A ............ 1      0.11643 /_  -34.5   0.96957     0.208        1-2    0.23287 /_  -34.5    1.1196
   -                    2      0.11644 /_  145.5    0.9696     0.208
SX2916598A ............ 1      0.11523 /_  -34.4   0.95956     0.208        1-2    0.23047 /_  -34.4     1.108
   -                    2      0.11524 /_  145.6   0.95959     0.208
...